*SPEF "ieee 1481-1999"
*DESIGN "decoder"
*DATE "09:53:34 Thursday July 10, 2025"
*VENDOR "The OpenROAD Project"
*PROGRAM "OpenROAD"
*VERSION "341650e72dad0dc8571822ff8c5d9c5e365327f7"
*DESIGN_FLOW "NAME_SCOPE LOCAL" "PIN_CAP NONE"
*DIVIDER /
*DELIMITER :
*BUS_DELIMITER []
*T_UNIT 1 NS
*C_UNIT 1 PF
*R_UNIT 1 OHM
*L_UNIT 1 HENRY

*NAME_MAP
*3 ena_i
*4 input_ni[0]
*5 input_ni[1]
*6 input_ni[2]
*7 input_ni[3]
*8 input_ni[4]
*9 input_ni[5]
*10 input_ni[6]
*11 input_ni[7]
*12 output_no[0]
*13 output_no[100]
*14 output_no[101]
*15 output_no[102]
*16 output_no[103]
*17 output_no[104]
*18 output_no[105]
*19 output_no[106]
*20 output_no[107]
*21 output_no[108]
*22 output_no[109]
*23 output_no[10]
*24 output_no[110]
*25 output_no[111]
*26 output_no[112]
*27 output_no[113]
*28 output_no[114]
*29 output_no[115]
*30 output_no[116]
*31 output_no[117]
*32 output_no[118]
*33 output_no[119]
*34 output_no[11]
*35 output_no[120]
*36 output_no[121]
*37 output_no[122]
*38 output_no[123]
*39 output_no[124]
*40 output_no[125]
*41 output_no[126]
*42 output_no[127]
*43 output_no[128]
*44 output_no[129]
*45 output_no[12]
*46 output_no[130]
*47 output_no[131]
*48 output_no[132]
*49 output_no[133]
*50 output_no[134]
*51 output_no[135]
*52 output_no[136]
*53 output_no[137]
*54 output_no[138]
*55 output_no[139]
*56 output_no[13]
*57 output_no[140]
*58 output_no[141]
*59 output_no[142]
*60 output_no[143]
*61 output_no[144]
*62 output_no[145]
*63 output_no[146]
*64 output_no[147]
*65 output_no[148]
*66 output_no[149]
*67 output_no[14]
*68 output_no[150]
*69 output_no[151]
*70 output_no[152]
*71 output_no[153]
*72 output_no[154]
*73 output_no[155]
*74 output_no[156]
*75 output_no[157]
*76 output_no[158]
*77 output_no[159]
*78 output_no[15]
*79 output_no[160]
*80 output_no[161]
*81 output_no[162]
*82 output_no[163]
*83 output_no[164]
*84 output_no[165]
*85 output_no[166]
*86 output_no[167]
*87 output_no[168]
*88 output_no[169]
*89 output_no[16]
*90 output_no[170]
*91 output_no[171]
*92 output_no[172]
*93 output_no[173]
*94 output_no[174]
*95 output_no[175]
*96 output_no[176]
*97 output_no[177]
*98 output_no[178]
*99 output_no[179]
*100 output_no[17]
*101 output_no[180]
*102 output_no[181]
*103 output_no[182]
*104 output_no[183]
*105 output_no[184]
*106 output_no[185]
*107 output_no[186]
*108 output_no[187]
*109 output_no[188]
*110 output_no[189]
*111 output_no[18]
*112 output_no[190]
*113 output_no[191]
*114 output_no[192]
*115 output_no[193]
*116 output_no[194]
*117 output_no[195]
*118 output_no[196]
*119 output_no[197]
*120 output_no[198]
*121 output_no[199]
*122 output_no[19]
*123 output_no[1]
*124 output_no[200]
*125 output_no[201]
*126 output_no[202]
*127 output_no[203]
*128 output_no[204]
*129 output_no[205]
*130 output_no[206]
*131 output_no[207]
*132 output_no[208]
*133 output_no[209]
*134 output_no[20]
*135 output_no[210]
*136 output_no[211]
*137 output_no[212]
*138 output_no[213]
*139 output_no[214]
*140 output_no[215]
*141 output_no[216]
*142 output_no[217]
*143 output_no[218]
*144 output_no[219]
*145 output_no[21]
*146 output_no[220]
*147 output_no[221]
*148 output_no[222]
*149 output_no[223]
*150 output_no[224]
*151 output_no[225]
*152 output_no[226]
*153 output_no[227]
*154 output_no[228]
*155 output_no[229]
*156 output_no[22]
*157 output_no[230]
*158 output_no[231]
*159 output_no[232]
*160 output_no[233]
*161 output_no[234]
*162 output_no[235]
*163 output_no[236]
*164 output_no[237]
*165 output_no[238]
*166 output_no[239]
*167 output_no[23]
*168 output_no[240]
*169 output_no[241]
*170 output_no[242]
*171 output_no[243]
*172 output_no[244]
*173 output_no[245]
*174 output_no[246]
*175 output_no[247]
*176 output_no[248]
*177 output_no[249]
*178 output_no[24]
*179 output_no[250]
*180 output_no[251]
*181 output_no[252]
*182 output_no[253]
*183 output_no[254]
*184 output_no[255]
*185 output_no[25]
*186 output_no[26]
*187 output_no[27]
*188 output_no[28]
*189 output_no[29]
*190 output_no[2]
*191 output_no[30]
*192 output_no[31]
*193 output_no[32]
*194 output_no[33]
*195 output_no[34]
*196 output_no[35]
*197 output_no[36]
*198 output_no[37]
*199 output_no[38]
*200 output_no[39]
*201 output_no[3]
*202 output_no[40]
*203 output_no[41]
*204 output_no[42]
*205 output_no[43]
*206 output_no[44]
*207 output_no[45]
*208 output_no[46]
*209 output_no[47]
*210 output_no[48]
*211 output_no[49]
*212 output_no[4]
*213 output_no[50]
*214 output_no[51]
*215 output_no[52]
*216 output_no[53]
*217 output_no[54]
*218 output_no[55]
*219 output_no[56]
*220 output_no[57]
*221 output_no[58]
*222 output_no[59]
*223 output_no[5]
*224 output_no[60]
*225 output_no[61]
*226 output_no[62]
*227 output_no[63]
*228 output_no[64]
*229 output_no[65]
*230 output_no[66]
*231 output_no[67]
*232 output_no[68]
*233 output_no[69]
*234 output_no[6]
*235 output_no[70]
*236 output_no[71]
*237 output_no[72]
*238 output_no[73]
*239 output_no[74]
*240 output_no[75]
*241 output_no[76]
*242 output_no[77]
*243 output_no[78]
*244 output_no[79]
*245 output_no[7]
*246 output_no[80]
*247 output_no[81]
*248 output_no[82]
*249 output_no[83]
*250 output_no[84]
*251 output_no[85]
*252 output_no[86]
*253 output_no[87]
*254 output_no[88]
*255 output_no[89]
*256 output_no[8]
*257 output_no[90]
*258 output_no[91]
*259 output_no[92]
*260 output_no[93]
*261 output_no[94]
*262 output_no[95]
*263 output_no[96]
*264 output_no[97]
*265 output_no[98]
*266 output_no[99]
*267 output_no[9]
*268 output_o[0]
*269 output_o[100]
*270 output_o[101]
*271 output_o[102]
*272 output_o[103]
*273 output_o[104]
*274 output_o[105]
*275 output_o[106]
*276 output_o[107]
*277 output_o[108]
*278 output_o[109]
*279 output_o[10]
*280 output_o[110]
*281 output_o[111]
*282 output_o[112]
*283 output_o[113]
*284 output_o[114]
*285 output_o[115]
*286 output_o[116]
*287 output_o[117]
*288 output_o[118]
*289 output_o[119]
*290 output_o[11]
*291 output_o[120]
*292 output_o[121]
*293 output_o[122]
*294 output_o[123]
*295 output_o[124]
*296 output_o[125]
*297 output_o[126]
*298 output_o[127]
*299 output_o[128]
*300 output_o[129]
*301 output_o[12]
*302 output_o[130]
*303 output_o[131]
*304 output_o[132]
*305 output_o[133]
*306 output_o[134]
*307 output_o[135]
*308 output_o[136]
*309 output_o[137]
*310 output_o[138]
*311 output_o[139]
*312 output_o[13]
*313 output_o[140]
*314 output_o[141]
*315 output_o[142]
*316 output_o[143]
*317 output_o[144]
*318 output_o[145]
*319 output_o[146]
*320 output_o[147]
*321 output_o[148]
*322 output_o[149]
*323 output_o[14]
*324 output_o[150]
*325 output_o[151]
*326 output_o[152]
*327 output_o[153]
*328 output_o[154]
*329 output_o[155]
*330 output_o[156]
*331 output_o[157]
*332 output_o[158]
*333 output_o[159]
*334 output_o[15]
*335 output_o[160]
*336 output_o[161]
*337 output_o[162]
*338 output_o[163]
*339 output_o[164]
*340 output_o[165]
*341 output_o[166]
*342 output_o[167]
*343 output_o[168]
*344 output_o[169]
*345 output_o[16]
*346 output_o[170]
*347 output_o[171]
*348 output_o[172]
*349 output_o[173]
*350 output_o[174]
*351 output_o[175]
*352 output_o[176]
*353 output_o[177]
*354 output_o[178]
*355 output_o[179]
*356 output_o[17]
*357 output_o[180]
*358 output_o[181]
*359 output_o[182]
*360 output_o[183]
*361 output_o[184]
*362 output_o[185]
*363 output_o[186]
*364 output_o[187]
*365 output_o[188]
*366 output_o[189]
*367 output_o[18]
*368 output_o[190]
*369 output_o[191]
*370 output_o[192]
*371 output_o[193]
*372 output_o[194]
*373 output_o[195]
*374 output_o[196]
*375 output_o[197]
*376 output_o[198]
*377 output_o[199]
*378 output_o[19]
*379 output_o[1]
*380 output_o[200]
*381 output_o[201]
*382 output_o[202]
*383 output_o[203]
*384 output_o[204]
*385 output_o[205]
*386 output_o[206]
*387 output_o[207]
*388 output_o[208]
*389 output_o[209]
*390 output_o[20]
*391 output_o[210]
*392 output_o[211]
*393 output_o[212]
*394 output_o[213]
*395 output_o[214]
*396 output_o[215]
*397 output_o[216]
*398 output_o[217]
*399 output_o[218]
*400 output_o[219]
*401 output_o[21]
*402 output_o[220]
*403 output_o[221]
*404 output_o[222]
*405 output_o[223]
*406 output_o[224]
*407 output_o[225]
*408 output_o[226]
*409 output_o[227]
*410 output_o[228]
*411 output_o[229]
*412 output_o[22]
*413 output_o[230]
*414 output_o[231]
*415 output_o[232]
*416 output_o[233]
*417 output_o[234]
*418 output_o[235]
*419 output_o[236]
*420 output_o[237]
*421 output_o[238]
*422 output_o[239]
*423 output_o[23]
*424 output_o[240]
*425 output_o[241]
*426 output_o[242]
*427 output_o[243]
*428 output_o[244]
*429 output_o[245]
*430 output_o[246]
*431 output_o[247]
*432 output_o[248]
*433 output_o[249]
*434 output_o[24]
*435 output_o[250]
*436 output_o[251]
*437 output_o[252]
*438 output_o[253]
*439 output_o[254]
*440 output_o[255]
*441 output_o[25]
*442 output_o[26]
*443 output_o[27]
*444 output_o[28]
*445 output_o[29]
*446 output_o[2]
*447 output_o[30]
*448 output_o[31]
*449 output_o[32]
*450 output_o[33]
*451 output_o[34]
*452 output_o[35]
*453 output_o[36]
*454 output_o[37]
*455 output_o[38]
*456 output_o[39]
*457 output_o[3]
*458 output_o[40]
*459 output_o[41]
*460 output_o[42]
*461 output_o[43]
*462 output_o[44]
*463 output_o[45]
*464 output_o[46]
*465 output_o[47]
*466 output_o[48]
*467 output_o[49]
*468 output_o[4]
*469 output_o[50]
*470 output_o[51]
*471 output_o[52]
*472 output_o[53]
*473 output_o[54]
*474 output_o[55]
*475 output_o[56]
*476 output_o[57]
*477 output_o[58]
*478 output_o[59]
*479 output_o[5]
*480 output_o[60]
*481 output_o[61]
*482 output_o[62]
*483 output_o[63]
*484 output_o[64]
*485 output_o[65]
*486 output_o[66]
*487 output_o[67]
*488 output_o[68]
*489 output_o[69]
*490 output_o[6]
*491 output_o[70]
*492 output_o[71]
*493 output_o[72]
*494 output_o[73]
*495 output_o[74]
*496 output_o[75]
*497 output_o[76]
*498 output_o[77]
*499 output_o[78]
*500 output_o[79]
*501 output_o[7]
*502 output_o[80]
*503 output_o[81]
*504 output_o[82]
*505 output_o[83]
*506 output_o[84]
*507 output_o[85]
*508 output_o[86]
*509 output_o[87]
*510 output_o[88]
*511 output_o[89]
*512 output_o[8]
*513 output_o[90]
*514 output_o[91]
*515 output_o[92]
*516 output_o[93]
*517 output_o[94]
*518 output_o[95]
*519 output_o[96]
*520 output_o[97]
*521 output_o[98]
*522 output_o[99]
*523 output_o[9]
*524 _000_
*525 _001_
*526 _002_
*527 _003_
*528 _004_
*529 _005_
*530 _006_
*531 _007_
*532 _008_
*533 _009_
*534 _010_
*535 _011_
*536 _012_
*537 _013_
*538 _014_
*539 _015_
*540 _016_
*541 _017_
*542 _018_
*543 _019_
*544 _020_
*545 _021_
*546 _022_
*547 _023_
*548 _024_
*549 _025_
*550 _026_
*551 _027_
*552 _028_
*553 _029_
*554 _030_
*555 _031_
*556 _032_
*557 _033_
*558 _034_
*559 _035_
*560 _036_
*561 _037_
*562 _038_
*563 _039_
*564 _040_
*565 _041_
*566 _042_
*567 _043_
*568 _044_
*569 _045_
*570 _046_
*571 _047_
*572 _048_
*573 _049_
*574 _050_
*575 _051_
*576 _052_
*577 _053_
*578 _054_
*579 _055_
*580 _056_
*581 _057_
*582 _058_
*583 _059_
*584 _060_
*585 _061_
*586 _062_
*587 _063_
*588 _064_
*589 _065_
*590 _066_
*591 _067_
*592 _068_
*593 _069_
*594 _070_
*595 _071_
*596 _072_
*597 _073_
*598 _074_
*599 _075_
*600 _076_
*601 _077_
*602 _078_
*603 _079_
*604 _080_
*605 _081_
*606 _082_
*607 _083_
*608 _084_
*609 _085_
*610 _086_
*611 _087_
*612 _088_
*613 _089_
*614 _090_
*615 _091_
*616 _092_
*617 _093_
*618 _094_
*619 net1
*620 net10
*621 net100
*622 net101
*623 net102
*624 net103
*625 net104
*626 net105
*627 net106
*628 net107
*629 net108
*630 net109
*631 net11
*632 net110
*633 net111
*634 net112
*635 net113
*636 net114
*637 net115
*638 net116
*639 net117
*640 net118
*641 net119
*642 net12
*643 net120
*644 net121
*645 net122
*646 net123
*647 net124
*648 net125
*649 net126
*650 net127
*651 net128
*652 net129
*653 net13
*654 net130
*655 net131
*656 net132
*657 net133
*658 net134
*659 net135
*660 net136
*661 net137
*662 net138
*663 net139
*664 net14
*665 net140
*666 net141
*667 net142
*668 net143
*669 net144
*670 net145
*671 net146
*672 net147
*673 net148
*674 net149
*675 net15
*676 net150
*677 net151
*678 net152
*679 net153
*680 net154
*681 net155
*682 net156
*683 net157
*684 net158
*685 net159
*686 net16
*687 net160
*688 net161
*689 net162
*690 net163
*691 net164
*692 net165
*693 net166
*694 net167
*695 net168
*696 net169
*697 net17
*698 net170
*699 net171
*700 net172
*701 net173
*702 net174
*703 net175
*704 net176
*705 net177
*706 net178
*707 net179
*708 net18
*709 net180
*710 net181
*711 net182
*712 net183
*713 net184
*714 net185
*715 net186
*716 net187
*717 net188
*718 net189
*719 net19
*720 net190
*721 net191
*722 net192
*723 net193
*724 net194
*725 net195
*726 net196
*727 net197
*728 net198
*729 net199
*730 net2
*731 net20
*732 net200
*733 net201
*734 net202
*735 net203
*736 net204
*737 net205
*738 net206
*739 net207
*740 net208
*741 net209
*742 net21
*743 net210
*744 net211
*745 net212
*746 net213
*747 net214
*748 net215
*749 net216
*750 net217
*751 net218
*752 net219
*753 net22
*754 net220
*755 net221
*756 net222
*757 net223
*758 net224
*759 net225
*760 net226
*761 net227
*762 net228
*763 net229
*764 net23
*765 net230
*766 net231
*767 net232
*768 net233
*769 net234
*770 net235
*771 net236
*772 net237
*773 net238
*774 net239
*775 net24
*776 net240
*777 net241
*778 net242
*779 net243
*780 net244
*781 net245
*782 net246
*783 net247
*784 net248
*785 net249
*786 net25
*787 net250
*788 net251
*789 net252
*790 net253
*791 net254
*792 net255
*793 net256
*794 net257
*795 net258
*796 net259
*797 net26
*798 net260
*799 net261
*800 net262
*801 net263
*802 net264
*803 net265
*804 net266
*805 net267
*806 net268
*807 net269
*808 net27
*809 net270
*810 net271
*811 net272
*812 net273
*813 net274
*814 net275
*815 net276
*816 net277
*817 net278
*818 net279
*819 net28
*820 net280
*821 net281
*822 net282
*823 net283
*824 net284
*825 net285
*826 net286
*827 net287
*828 net288
*829 net289
*830 net29
*831 net290
*832 net291
*833 net292
*834 net293
*835 net294
*836 net295
*837 net296
*838 net297
*839 net298
*840 net299
*841 net3
*842 net30
*843 net300
*844 net301
*845 net302
*846 net303
*847 net304
*848 net305
*849 net306
*850 net307
*851 net308
*852 net309
*853 net31
*854 net310
*855 net311
*856 net312
*857 net313
*858 net314
*859 net315
*860 net316
*861 net317
*862 net318
*863 net319
*864 net32
*865 net320
*866 net321
*867 net322
*868 net323
*869 net324
*870 net325
*871 net326
*872 net327
*873 net328
*874 net329
*875 net33
*876 net330
*877 net331
*878 net332
*879 net333
*880 net334
*881 net335
*882 net336
*883 net337
*884 net338
*885 net339
*886 net34
*887 net340
*888 net341
*889 net342
*890 net343
*891 net344
*892 net345
*893 net346
*894 net347
*895 net348
*896 net349
*897 net35
*898 net350
*899 net351
*900 net352
*901 net353
*902 net354
*903 net355
*904 net356
*905 net357
*906 net358
*907 net359
*908 net36
*909 net360
*910 net361
*911 net362
*912 net363
*913 net364
*914 net365
*915 net366
*916 net367
*917 net368
*918 net369
*919 net37
*920 net370
*921 net371
*922 net372
*923 net373
*924 net374
*925 net375
*926 net376
*927 net377
*928 net378
*929 net379
*930 net38
*931 net380
*932 net381
*933 net382
*934 net383
*935 net384
*936 net385
*937 net386
*938 net387
*939 net388
*940 net389
*941 net39
*942 net390
*943 net391
*944 net392
*945 net393
*946 net394
*947 net395
*948 net396
*949 net397
*950 net398
*951 net399
*952 net4
*953 net40
*954 net400
*955 net401
*956 net402
*957 net403
*958 net404
*959 net405
*960 net406
*961 net407
*962 net408
*963 net409
*964 net41
*965 net410
*966 net411
*967 net412
*968 net413
*969 net414
*970 net415
*971 net416
*972 net417
*973 net418
*974 net419
*975 net42
*976 net420
*977 net421
*978 net422
*979 net423
*980 net424
*981 net425
*982 net426
*983 net427
*984 net428
*985 net429
*986 net43
*987 net430
*988 net431
*989 net432
*990 net433
*991 net434
*992 net435
*993 net436
*994 net437
*995 net438
*996 net439
*997 net44
*998 net440
*999 net441
*1000 net442
*1001 net443
*1002 net444
*1003 net445
*1004 net446
*1005 net447
*1006 net448
*1007 net449
*1008 net45
*1009 net450
*1010 net451
*1011 net452
*1012 net453
*1013 net454
*1014 net455
*1015 net456
*1016 net457
*1017 net458
*1018 net459
*1019 net46
*1020 net460
*1021 net461
*1022 net462
*1023 net463
*1024 net464
*1025 net465
*1026 net466
*1027 net467
*1028 net468
*1029 net469
*1030 net47
*1031 net470
*1032 net471
*1033 net472
*1034 net473
*1035 net474
*1036 net475
*1037 net476
*1038 net477
*1039 net478
*1040 net479
*1041 net48
*1042 net480
*1043 net481
*1044 net482
*1045 net483
*1046 net484
*1047 net485
*1048 net486
*1049 net487
*1050 net488
*1051 net489
*1052 net49
*1053 net490
*1054 net491
*1055 net492
*1056 net493
*1057 net494
*1058 net495
*1059 net496
*1060 net497
*1061 net498
*1062 net499
*1063 net5
*1064 net50
*1065 net500
*1066 net501
*1067 net502
*1068 net503
*1069 net504
*1070 net505
*1071 net506
*1072 net507
*1073 net508
*1074 net509
*1075 net51
*1076 net510
*1077 net511
*1078 net512
*1079 net513
*1080 net514
*1081 net515
*1082 net516
*1083 net517
*1084 net518
*1085 net519
*1086 net52
*1087 net520
*1088 net521
*1089 net522
*1090 net523
*1091 net524
*1092 net525
*1093 net526
*1094 net527
*1095 net528
*1096 net529
*1097 net53
*1098 net530
*1099 net531
*1100 net532
*1101 net533
*1102 net534
*1103 net535
*1104 net536
*1105 net537
*1106 net538
*1107 net539
*1108 net54
*1109 net540
*1110 net541
*1111 net542
*1112 net543
*1113 net544
*1114 net545
*1115 net546
*1116 net547
*1117 net548
*1118 net549
*1119 net55
*1120 net550
*1121 net551
*1122 net552
*1123 net553
*1124 net554
*1125 net555
*1126 net556
*1127 net557
*1128 net558
*1129 net559
*1130 net56
*1131 net560
*1132 net561
*1133 net562
*1134 net563
*1135 net564
*1136 net565
*1137 net566
*1138 net567
*1139 net568
*1140 net569
*1141 net57
*1142 net570
*1143 net571
*1144 net572
*1145 net573
*1146 net574
*1147 net575
*1148 net576
*1149 net577
*1150 net578
*1151 net579
*1152 net58
*1153 net580
*1154 net581
*1155 net582
*1156 net583
*1157 net584
*1158 net585
*1159 net586
*1160 net587
*1161 net588
*1162 net589
*1163 net59
*1164 net590
*1165 net591
*1166 net592
*1167 net593
*1168 net594
*1169 net595
*1170 net596
*1171 net597
*1172 net598
*1173 net599
*1174 net6
*1175 net60
*1176 net600
*1177 net601
*1178 net602
*1179 net603
*1180 net604
*1181 net605
*1182 net606
*1183 net607
*1184 net608
*1185 net609
*1186 net61
*1187 net610
*1188 net611
*1189 net612
*1190 net613
*1191 net614
*1192 net615
*1193 net616
*1194 net617
*1195 net618
*1196 net619
*1197 net62
*1198 net620
*1199 net621
*1200 net622
*1201 net623
*1202 net624
*1203 net625
*1204 net626
*1205 net627
*1206 net628
*1207 net629
*1208 net63
*1209 net630
*1210 net631
*1211 net632
*1212 net633
*1213 net634
*1214 net635
*1215 net636
*1216 net637
*1217 net638
*1218 net639
*1219 net64
*1220 net640
*1221 net641
*1222 net642
*1223 net643
*1224 net644
*1225 net645
*1226 net646
*1227 net647
*1228 net648
*1229 net649
*1230 net65
*1231 net650
*1232 net651
*1233 net652
*1234 net653
*1235 net654
*1236 net655
*1237 net656
*1238 net657
*1239 net658
*1240 net659
*1241 net66
*1242 net660
*1243 net661
*1244 net662
*1245 net663
*1246 net664
*1247 net665
*1248 net666
*1249 net667
*1250 net668
*1251 net669
*1252 net67
*1253 net670
*1254 net671
*1255 net672
*1256 net673
*1257 net68
*1258 net69
*1259 net7
*1260 net70
*1261 net71
*1262 net72
*1263 net73
*1264 net74
*1265 net75
*1266 net76
*1267 net77
*1268 net78
*1269 net79
*1270 net8
*1271 net80
*1272 net81
*1273 net82
*1274 net83
*1275 net84
*1276 net85
*1277 net86
*1278 net87
*1279 net88
*1280 net89
*1281 net9
*1282 net90
*1283 net91
*1284 net92
*1285 net93
*1286 net94
*1287 net95
*1288 net96
*1289 net97
*1290 net98
*1291 net99
*1292 FILLER_0_1016
*1293 FILLER_0_177
*1294 FILLER_0_179
*1295 FILLER_0_354
*1296 FILLER_0_485
*1297 FILLER_0_533
*1298 FILLER_0_555
*1299 FILLER_0_581
*1300 FILLER_0_603
*1301 FILLER_0_605
*1302 FILLER_0_638
*1303 FILLER_0_828
*1304 FILLER_0_830
*1305 FILLER_10_0
*1306 FILLER_10_1003
*1307 FILLER_10_1010
*1308 FILLER_10_105
*1309 FILLER_10_109
*1310 FILLER_10_118
*1311 FILLER_10_125
*1312 FILLER_10_132
*1313 FILLER_10_139
*1314 FILLER_10_14
*1315 FILLER_10_146
*1316 FILLER_10_154
*1317 FILLER_10_161
*1318 FILLER_10_165
*1319 FILLER_10_172
*1320 FILLER_10_179
*1321 FILLER_10_186
*1322 FILLER_10_194
*1323 FILLER_10_201
*1324 FILLER_10_208
*1325 FILLER_10_21
*1326 FILLER_10_215
*1327 FILLER_10_222
*1328 FILLER_10_229
*1329 FILLER_10_236
*1330 FILLER_10_238
*1331 FILLER_10_251
*1332 FILLER_10_258
*1333 FILLER_10_265
*1334 FILLER_10_272
*1335 FILLER_10_279
*1336 FILLER_10_28
*1337 FILLER_10_286
*1338 FILLER_10_293
*1339 FILLER_10_300
*1340 FILLER_10_307
*1341 FILLER_10_316
*1342 FILLER_10_323
*1343 FILLER_10_330
*1344 FILLER_10_337
*1345 FILLER_10_344
*1346 FILLER_10_35
*1347 FILLER_10_351
*1348 FILLER_10_358
*1349 FILLER_10_365
*1350 FILLER_10_375
*1351 FILLER_10_382
*1352 FILLER_10_389
*1353 FILLER_10_393
*1354 FILLER_10_400
*1355 FILLER_10_407
*1356 FILLER_10_414
*1357 FILLER_10_42
*1358 FILLER_10_421
*1359 FILLER_10_428
*1360 FILLER_10_435
*1361 FILLER_10_442
*1362 FILLER_10_449
*1363 FILLER_10_456
*1364 FILLER_10_463
*1365 FILLER_10_470
*1366 FILLER_10_477
*1367 FILLER_10_484
*1368 FILLER_10_49
*1369 FILLER_10_491
*1370 FILLER_10_498
*1371 FILLER_10_505
*1372 FILLER_10_513
*1373 FILLER_10_520
*1374 FILLER_10_527
*1375 FILLER_10_534
*1376 FILLER_10_541
*1377 FILLER_10_548
*1378 FILLER_10_555
*1379 FILLER_10_56
*1380 FILLER_10_562
*1381 FILLER_10_569
*1382 FILLER_10_576
*1383 FILLER_10_583
*1384 FILLER_10_590
*1385 FILLER_10_597
*1386 FILLER_10_604
*1387 FILLER_10_611
*1388 FILLER_10_618
*1389 FILLER_10_622
*1390 FILLER_10_628
*1391 FILLER_10_63
*1392 FILLER_10_635
*1393 FILLER_10_642
*1394 FILLER_10_649
*1395 FILLER_10_656
*1396 FILLER_10_663
*1397 FILLER_10_670
*1398 FILLER_10_677
*1399 FILLER_10_684
*1400 FILLER_10_691
*1401 FILLER_10_698
*1402 FILLER_10_7
*1403 FILLER_10_70
*1404 FILLER_10_705
*1405 FILLER_10_712
*1406 FILLER_10_719
*1407 FILLER_10_726
*1408 FILLER_10_733
*1409 FILLER_10_742
*1410 FILLER_10_749
*1411 FILLER_10_756
*1412 FILLER_10_763
*1413 FILLER_10_77
*1414 FILLER_10_770
*1415 FILLER_10_777
*1416 FILLER_10_784
*1417 FILLER_10_791
*1418 FILLER_10_798
*1419 FILLER_10_805
*1420 FILLER_10_812
*1421 FILLER_10_819
*1422 FILLER_10_826
*1423 FILLER_10_833
*1424 FILLER_10_84
*1425 FILLER_10_840
*1426 FILLER_10_847
*1427 FILLER_10_856
*1428 FILLER_10_863
*1429 FILLER_10_870
*1430 FILLER_10_877
*1431 FILLER_10_884
*1432 FILLER_10_891
*1433 FILLER_10_898
*1434 FILLER_10_905
*1435 FILLER_10_91
*1436 FILLER_10_912
*1437 FILLER_10_919
*1438 FILLER_10_926
*1439 FILLER_10_933
*1440 FILLER_10_940
*1441 FILLER_10_947
*1442 FILLER_10_954
*1443 FILLER_10_961
*1444 FILLER_10_968
*1445 FILLER_10_975
*1446 FILLER_10_98
*1447 FILLER_10_982
*1448 FILLER_10_989
*1449 FILLER_10_996
*1450 FILLER_1_0
*1451 FILLER_1_1016
*1452 FILLER_1_189
*1453 FILLER_1_2
*1454 FILLER_1_297
*1455 FILLER_1_495
*1456 FILLER_1_497
*1457 FILLER_1_512
*1458 FILLER_1_514
*1459 FILLER_1_537
*1460 FILLER_1_555
*1461 FILLER_1_573
*1462 FILLER_1_643
*1463 FILLER_1_645
*1464 FILLER_1_681
*1465 FILLER_1_789
*1466 FILLER_1_832
*1467 FILLER_1_862
*1468 FILLER_2_0
*1469 FILLER_2_1015
*1470 FILLER_2_103
*1471 FILLER_2_110
*1472 FILLER_2_117
*1473 FILLER_2_124
*1474 FILLER_2_156
*1475 FILLER_2_179
*1476 FILLER_2_19
*1477 FILLER_2_193
*1478 FILLER_2_2
*1479 FILLER_2_228
*1480 FILLER_2_230
*1481 FILLER_2_26
*1482 FILLER_2_321
*1483 FILLER_2_33
*1484 FILLER_2_372
*1485 FILLER_2_399
*1486 FILLER_2_40
*1487 FILLER_2_404
*1488 FILLER_2_47
*1489 FILLER_2_470
*1490 FILLER_2_519
*1491 FILLER_2_526
*1492 FILLER_2_530
*1493 FILLER_2_535
*1494 FILLER_2_54
*1495 FILLER_2_606
*1496 FILLER_2_61
*1497 FILLER_2_622
*1498 FILLER_2_624
*1499 FILLER_2_643
*1500 FILLER_2_645
*1501 FILLER_2_659
*1502 FILLER_2_68
*1503 FILLER_2_686
*1504 FILLER_2_711
*1505 FILLER_2_736
*1506 FILLER_2_75
*1507 FILLER_2_757
*1508 FILLER_2_759
*1509 FILLER_2_797
*1510 FILLER_2_811
*1511 FILLER_2_82
*1512 FILLER_2_853
*1513 FILLER_2_863
*1514 FILLER_2_865
*1515 FILLER_2_89
*1516 FILLER_2_911
*1517 FILLER_2_918
*1518 FILLER_2_925
*1519 FILLER_2_932
*1520 FILLER_2_939
*1521 FILLER_2_946
*1522 FILLER_2_953
*1523 FILLER_2_96
*1524 FILLER_2_960
*1525 FILLER_2_967
*1526 FILLER_2_974
*1527 FILLER_2_981
*1528 FILLER_2_988
*1529 FILLER_2_995
*1530 FILLER_3_0
*1531 FILLER_3_1015
*1532 FILLER_3_102
*1533 FILLER_3_109
*1534 FILLER_3_11
*1535 FILLER_3_116
*1536 FILLER_3_123
*1537 FILLER_3_130
*1538 FILLER_3_137
*1539 FILLER_3_144
*1540 FILLER_3_146
*1541 FILLER_3_171
*1542 FILLER_3_18
*1543 FILLER_3_180
*1544 FILLER_3_2
*1545 FILLER_3_205
*1546 FILLER_3_232
*1547 FILLER_3_234
*1548 FILLER_3_243
*1549 FILLER_3_25
*1550 FILLER_3_250
*1551 FILLER_3_257
*1552 FILLER_3_272
*1553 FILLER_3_279
*1554 FILLER_3_32
*1555 FILLER_3_331
*1556 FILLER_3_338
*1557 FILLER_3_360
*1558 FILLER_3_362
*1559 FILLER_3_386
*1560 FILLER_3_388
*1561 FILLER_3_39
*1562 FILLER_3_394
*1563 FILLER_3_407
*1564 FILLER_3_414
*1565 FILLER_3_419
*1566 FILLER_3_456
*1567 FILLER_3_46
*1568 FILLER_3_462
*1569 FILLER_3_476
*1570 FILLER_3_511
*1571 FILLER_3_518
*1572 FILLER_3_525
*1573 FILLER_3_529
*1574 FILLER_3_53
*1575 FILLER_3_536
*1576 FILLER_3_540
*1577 FILLER_3_545
*1578 FILLER_3_551
*1579 FILLER_3_565
*1580 FILLER_3_571
*1581 FILLER_3_573
*1582 FILLER_3_60
*1583 FILLER_3_621
*1584 FILLER_3_656
*1585 FILLER_3_658
*1586 FILLER_3_67
*1587 FILLER_3_672
*1588 FILLER_3_679
*1589 FILLER_3_696
*1590 FILLER_3_698
*1591 FILLER_3_711
*1592 FILLER_3_728
*1593 FILLER_3_734
*1594 FILLER_3_736
*1595 FILLER_3_74
*1596 FILLER_3_749
*1597 FILLER_3_751
*1598 FILLER_3_796
*1599 FILLER_3_803
*1600 FILLER_3_81
*1601 FILLER_3_829
*1602 FILLER_3_842
*1603 FILLER_3_863
*1604 FILLER_3_88
*1605 FILLER_3_891
*1606 FILLER_3_898
*1607 FILLER_3_905
*1608 FILLER_3_912
*1609 FILLER_3_919
*1610 FILLER_3_926
*1611 FILLER_3_933
*1612 FILLER_3_940
*1613 FILLER_3_947
*1614 FILLER_3_95
*1615 FILLER_3_954
*1616 FILLER_3_961
*1617 FILLER_3_968
*1618 FILLER_3_975
*1619 FILLER_3_982
*1620 FILLER_3_989
*1621 FILLER_3_996
*1622 FILLER_4_100
*1623 FILLER_4_1001
*1624 FILLER_4_1008
*1625 FILLER_4_1012
*1626 FILLER_4_107
*1627 FILLER_4_11
*1628 FILLER_4_114
*1629 FILLER_4_121
*1630 FILLER_4_128
*1631 FILLER_4_135
*1632 FILLER_4_142
*1633 FILLER_4_149
*1634 FILLER_4_162
*1635 FILLER_4_169
*1636 FILLER_4_171
*1637 FILLER_4_18
*1638 FILLER_4_196
*1639 FILLER_4_200
*1640 FILLER_4_209
*1641 FILLER_4_216
*1642 FILLER_4_223
*1643 FILLER_4_227
*1644 FILLER_4_25
*1645 FILLER_4_255
*1646 FILLER_4_259
*1647 FILLER_4_280
*1648 FILLER_4_282
*1649 FILLER_4_288
*1650 FILLER_4_295
*1651 FILLER_4_302
*1652 FILLER_4_309
*1653 FILLER_4_313
*1654 FILLER_4_32
*1655 FILLER_4_336
*1656 FILLER_4_354
*1657 FILLER_4_356
*1658 FILLER_4_388
*1659 FILLER_4_39
*1660 FILLER_4_394
*1661 FILLER_4_396
*1662 FILLER_4_4
*1663 FILLER_4_410
*1664 FILLER_4_437
*1665 FILLER_4_439
*1666 FILLER_4_46
*1667 FILLER_4_466
*1668 FILLER_4_472
*1669 FILLER_4_485
*1670 FILLER_4_504
*1671 FILLER_4_508
*1672 FILLER_4_53
*1673 FILLER_4_544
*1674 FILLER_4_563
*1675 FILLER_4_565
*1676 FILLER_4_575
*1677 FILLER_4_60
*1678 FILLER_4_628
*1679 FILLER_4_647
*1680 FILLER_4_651
*1681 FILLER_4_67
*1682 FILLER_4_684
*1683 FILLER_4_686
*1684 FILLER_4_700
*1685 FILLER_4_715
*1686 FILLER_4_722
*1687 FILLER_4_726
*1688 FILLER_4_74
*1689 FILLER_4_740
*1690 FILLER_4_748
*1691 FILLER_4_755
*1692 FILLER_4_757
*1693 FILLER_4_778
*1694 FILLER_4_785
*1695 FILLER_4_799
*1696 FILLER_4_806
*1697 FILLER_4_81
*1698 FILLER_4_827
*1699 FILLER_4_834
*1700 FILLER_4_838
*1701 FILLER_4_847
*1702 FILLER_4_865
*1703 FILLER_4_867
*1704 FILLER_4_873
*1705 FILLER_4_88
*1706 FILLER_4_880
*1707 FILLER_4_887
*1708 FILLER_4_889
*1709 FILLER_4_894
*1710 FILLER_4_896
*1711 FILLER_4_910
*1712 FILLER_4_917
*1713 FILLER_4_924
*1714 FILLER_4_931
*1715 FILLER_4_938
*1716 FILLER_4_945
*1717 FILLER_4_95
*1718 FILLER_4_952
*1719 FILLER_4_959
*1720 FILLER_4_966
*1721 FILLER_4_973
*1722 FILLER_4_980
*1723 FILLER_4_987
*1724 FILLER_4_994
*1725 FILLER_5_0
*1726 FILLER_5_1000
*1727 FILLER_5_1007
*1728 FILLER_5_1014
*1729 FILLER_5_1016
*1730 FILLER_5_106
*1731 FILLER_5_110
*1732 FILLER_5_115
*1733 FILLER_5_117
*1734 FILLER_5_122
*1735 FILLER_5_131
*1736 FILLER_5_138
*1737 FILLER_5_14
*1738 FILLER_5_145
*1739 FILLER_5_152
*1740 FILLER_5_159
*1741 FILLER_5_166
*1742 FILLER_5_173
*1743 FILLER_5_180
*1744 FILLER_5_186
*1745 FILLER_5_193
*1746 FILLER_5_200
*1747 FILLER_5_207
*1748 FILLER_5_21
*1749 FILLER_5_214
*1750 FILLER_5_221
*1751 FILLER_5_223
*1752 FILLER_5_231
*1753 FILLER_5_235
*1754 FILLER_5_245
*1755 FILLER_5_247
*1756 FILLER_5_252
*1757 FILLER_5_259
*1758 FILLER_5_266
*1759 FILLER_5_272
*1760 FILLER_5_279
*1761 FILLER_5_28
*1762 FILLER_5_286
*1763 FILLER_5_331
*1764 FILLER_5_338
*1765 FILLER_5_348
*1766 FILLER_5_35
*1767 FILLER_5_355
*1768 FILLER_5_362
*1769 FILLER_5_366
*1770 FILLER_5_371
*1771 FILLER_5_375
*1772 FILLER_5_384
*1773 FILLER_5_391
*1774 FILLER_5_42
*1775 FILLER_5_421
*1776 FILLER_5_428
*1777 FILLER_5_443
*1778 FILLER_5_447
*1779 FILLER_5_456
*1780 FILLER_5_468
*1781 FILLER_5_482
*1782 FILLER_5_489
*1783 FILLER_5_49
*1784 FILLER_5_507
*1785 FILLER_5_520
*1786 FILLER_5_544
*1787 FILLER_5_551
*1788 FILLER_5_557
*1789 FILLER_5_56
*1790 FILLER_5_564
*1791 FILLER_5_579
*1792 FILLER_5_585
*1793 FILLER_5_592
*1794 FILLER_5_599
*1795 FILLER_5_608
*1796 FILLER_5_625
*1797 FILLER_5_629
*1798 FILLER_5_63
*1799 FILLER_5_636
*1800 FILLER_5_656
*1801 FILLER_5_658
*1802 FILLER_5_669
*1803 FILLER_5_676
*1804 FILLER_5_688
*1805 FILLER_5_695
*1806 FILLER_5_7
*1807 FILLER_5_70
*1808 FILLER_5_700
*1809 FILLER_5_705
*1810 FILLER_5_710
*1811 FILLER_5_717
*1812 FILLER_5_721
*1813 FILLER_5_726
*1814 FILLER_5_733
*1815 FILLER_5_740
*1816 FILLER_5_747
*1817 FILLER_5_754
*1818 FILLER_5_765
*1819 FILLER_5_77
*1820 FILLER_5_775
*1821 FILLER_5_782
*1822 FILLER_5_789
*1823 FILLER_5_797
*1824 FILLER_5_799
*1825 FILLER_5_814
*1826 FILLER_5_821
*1827 FILLER_5_828
*1828 FILLER_5_834
*1829 FILLER_5_84
*1830 FILLER_5_841
*1831 FILLER_5_868
*1832 FILLER_5_875
*1833 FILLER_5_883
*1834 FILLER_5_885
*1835 FILLER_5_908
*1836 FILLER_5_923
*1837 FILLER_5_930
*1838 FILLER_5_937
*1839 FILLER_5_944
*1840 FILLER_5_951
*1841 FILLER_5_958
*1842 FILLER_5_96