*SPEF "ieee 1481-1999"
*DESIGN "decoder"
*DATE "09:32:39 Tuesday July 29, 2025"
*VENDOR "The OpenROAD Project"
*PROGRAM "OpenROAD"
*VERSION "341650e72dad0dc8571822ff8c5d9c5e365327f7"
*DESIGN_FLOW "NAME_SCOPE LOCAL" "PIN_CAP NONE"
*DIVIDER /
*DELIMITER :
*BUS_DELIMITER []
*T_UNIT 1 NS
*C_UNIT 1 PF
*R_UNIT 1 OHM
*L_UNIT 1 HENRY

*NAME_MAP
*3 ena_i
*4 input_ni[0]
*5 input_ni[1]
*6 input_ni[2]
*7 input_ni[3]
*8 input_ni[4]
*9 input_ni[5]
*10 input_ni[6]
*11 input_ni[7]
*12 output_no[0]
*13 output_no[100]
*14 output_no[101]
*15 output_no[102]
*16 output_no[103]
*17 output_no[104]
*18 output_no[105]
*19 output_no[106]
*20 output_no[107]
*21 output_no[108]
*22 output_no[109]
*23 output_no[10]
*24 output_no[110]
*25 output_no[111]
*26 output_no[112]
*27 output_no[113]
*28 output_no[114]
*29 output_no[115]
*30 output_no[116]
*31 output_no[117]
*32 output_no[118]
*33 output_no[119]
*34 output_no[11]
*35 output_no[120]
*36 output_no[121]
*37 output_no[122]
*38 output_no[123]
*39 output_no[124]
*40 output_no[125]
*41 output_no[126]
*42 output_no[127]
*43 output_no[128]
*44 output_no[129]
*45 output_no[12]
*46 output_no[130]
*47 output_no[131]
*48 output_no[132]
*49 output_no[133]
*50 output_no[134]
*51 output_no[135]
*52 output_no[136]
*53 output_no[137]
*54 output_no[138]
*55 output_no[139]
*56 output_no[13]
*57 output_no[140]
*58 output_no[141]
*59 output_no[142]
*60 output_no[143]
*61 output_no[144]
*62 output_no[145]
*63 output_no[146]
*64 output_no[147]
*65 output_no[148]
*66 output_no[149]
*67 output_no[14]
*68 output_no[150]
*69 output_no[151]
*70 output_no[152]
*71 output_no[153]
*72 output_no[154]
*73 output_no[155]
*74 output_no[156]
*75 output_no[157]
*76 output_no[158]
*77 output_no[159]
*78 output_no[15]
*79 output_no[160]
*80 output_no[161]
*81 output_no[162]
*82 output_no[163]
*83 output_no[164]
*84 output_no[165]
*85 output_no[166]
*86 output_no[167]
*87 output_no[168]
*88 output_no[169]
*89 output_no[16]
*90 output_no[170]
*91 output_no[171]
*92 output_no[172]
*93 output_no[173]
*94 output_no[174]
*95 output_no[175]
*96 output_no[176]
*97 output_no[177]
*98 output_no[178]
*99 output_no[179]
*100 output_no[17]
*101 output_no[180]
*102 output_no[181]
*103 output_no[182]
*104 output_no[183]
*105 output_no[184]
*106 output_no[185]
*107 output_no[186]
*108 output_no[187]
*109 output_no[188]
*110 output_no[189]
*111 output_no[18]
*112 output_no[190]
*113 output_no[191]
*114 output_no[192]
*115 output_no[193]
*116 output_no[194]
*117 output_no[195]
*118 output_no[196]
*119 output_no[197]
*120 output_no[198]
*121 output_no[199]
*122 output_no[19]
*123 output_no[1]
*124 output_no[200]
*125 output_no[201]
*126 output_no[202]
*127 output_no[203]
*128 output_no[204]
*129 output_no[205]
*130 output_no[206]
*131 output_no[207]
*132 output_no[208]
*133 output_no[209]
*134 output_no[20]
*135 output_no[210]
*136 output_no[211]
*137 output_no[212]
*138 output_no[213]
*139 output_no[214]
*140 output_no[215]
*141 output_no[216]
*142 output_no[217]
*143 output_no[218]
*144 output_no[219]
*145 output_no[21]
*146 output_no[220]
*147 output_no[221]
*148 output_no[222]
*149 output_no[223]
*150 output_no[224]
*151 output_no[225]
*152 output_no[226]
*153 output_no[227]
*154 output_no[228]
*155 output_no[229]
*156 output_no[22]
*157 output_no[230]
*158 output_no[231]
*159 output_no[232]
*160 output_no[233]
*161 output_no[234]
*162 output_no[235]
*163 output_no[236]
*164 output_no[237]
*165 output_no[238]
*166 output_no[239]
*167 output_no[23]
*168 output_no[240]
*169 output_no[241]
*170 output_no[242]
*171 output_no[243]
*172 output_no[244]
*173 output_no[245]
*174 output_no[246]
*175 output_no[247]
*176 output_no[248]
*177 output_no[249]
*178 output_no[24]
*179 output_no[250]
*180 output_no[251]
*181 output_no[252]
*182 output_no[253]
*183 output_no[254]
*184 output_no[255]
*185 output_no[25]
*186 output_no[26]
*187 output_no[27]
*188 output_no[28]
*189 output_no[29]
*190 output_no[2]
*191 output_no[30]
*192 output_no[31]
*193 output_no[32]
*194 output_no[33]
*195 output_no[34]
*196 output_no[35]
*197 output_no[36]
*198 output_no[37]
*199 output_no[38]
*200 output_no[39]
*201 output_no[3]
*202 output_no[40]
*203 output_no[41]
*204 output_no[42]
*205 output_no[43]
*206 output_no[44]
*207 output_no[45]
*208 output_no[46]
*209 output_no[47]
*210 output_no[48]
*211 output_no[49]
*212 output_no[4]
*213 output_no[50]
*214 output_no[51]
*215 output_no[52]
*216 output_no[53]
*217 output_no[54]
*218 output_no[55]
*219 output_no[56]
*220 output_no[57]
*221 output_no[58]
*222 output_no[59]
*223 output_no[5]
*224 output_no[60]
*225 output_no[61]
*226 output_no[62]
*227 output_no[63]
*228 output_no[64]
*229 output_no[65]
*230 output_no[66]
*231 output_no[67]
*232 output_no[68]
*233 output_no[69]
*234 output_no[6]
*235 output_no[70]
*236 output_no[71]
*237 output_no[72]
*238 output_no[73]
*239 output_no[74]
*240 output_no[75]
*241 output_no[76]
*242 output_no[77]
*243 output_no[78]
*244 output_no[79]
*245 output_no[7]
*246 output_no[80]
*247 output_no[81]
*248 output_no[82]
*249 output_no[83]
*250 output_no[84]
*251 output_no[85]
*252 output_no[86]
*253 output_no[87]
*254 output_no[88]
*255 output_no[89]
*256 output_no[8]
*257 output_no[90]
*258 output_no[91]
*259 output_no[92]
*260 output_no[93]
*261 output_no[94]
*262 output_no[95]
*263 output_no[96]
*264 output_no[97]
*265 output_no[98]
*266 output_no[99]
*267 output_no[9]
*268 output_o[0]
*269 output_o[100]
*270 output_o[101]
*271 output_o[102]
*272 output_o[103]
*273 output_o[104]
*274 output_o[105]
*275 output_o[106]
*276 output_o[107]
*277 output_o[108]
*278 output_o[109]
*279 output_o[10]
*280 output_o[110]
*281 output_o[111]
*282 output_o[112]
*283 output_o[113]
*284 output_o[114]
*285 output_o[115]
*286 output_o[116]
*287 output_o[117]
*288 output_o[118]
*289 output_o[119]
*290 output_o[11]
*291 output_o[120]
*292 output_o[121]
*293 output_o[122]
*294 output_o[123]
*295 output_o[124]
*296 output_o[125]
*297 output_o[126]
*298 output_o[127]
*299 output_o[128]
*300 output_o[129]
*301 output_o[12]
*302 output_o[130]
*303 output_o[131]
*304 output_o[132]
*305 output_o[133]
*306 output_o[134]
*307 output_o[135]
*308 output_o[136]
*309 output_o[137]
*310 output_o[138]
*311 output_o[139]
*312 output_o[13]
*313 output_o[140]
*314 output_o[141]
*315 output_o[142]
*316 output_o[143]
*317 output_o[144]
*318 output_o[145]
*319 output_o[146]
*320 output_o[147]
*321 output_o[148]
*322 output_o[149]
*323 output_o[14]
*324 output_o[150]
*325 output_o[151]
*326 output_o[152]
*327 output_o[153]
*328 output_o[154]
*329 output_o[155]
*330 output_o[156]
*331 output_o[157]
*332 output_o[158]
*333 output_o[159]
*334 output_o[15]
*335 output_o[160]
*336 output_o[161]
*337 output_o[162]
*338 output_o[163]
*339 output_o[164]
*340 output_o[165]
*341 output_o[166]
*342 output_o[167]
*343 output_o[168]
*344 output_o[169]
*345 output_o[16]
*346 output_o[170]
*347 output_o[171]
*348 output_o[172]
*349 output_o[173]
*350 output_o[174]
*351 output_o[175]
*352 output_o[176]
*353 output_o[177]
*354 output_o[178]
*355 output_o[179]
*356 output_o[17]
*357 output_o[180]
*358 output_o[181]
*359 output_o[182]
*360 output_o[183]
*361 output_o[184]
*362 output_o[185]
*363 output_o[186]
*364 output_o[187]
*365 output_o[188]
*366 output_o[189]
*367 output_o[18]
*368 output_o[190]
*369 output_o[191]
*370 output_o[192]
*371 output_o[193]
*372 output_o[194]
*373 output_o[195]
*374 output_o[196]
*375 output_o[197]
*376 output_o[198]
*377 output_o[199]
*378 output_o[19]
*379 output_o[1]
*380 output_o[200]
*381 output_o[201]
*382 output_o[202]
*383 output_o[203]
*384 output_o[204]
*385 output_o[205]
*386 output_o[206]
*387 output_o[207]
*388 output_o[208]
*389 output_o[209]
*390 output_o[20]
*391 output_o[210]
*392 output_o[211]
*393 output_o[212]
*394 output_o[213]
*395 output_o[214]
*396 output_o[215]
*397 output_o[216]
*398 output_o[217]
*399 output_o[218]
*400 output_o[219]
*401 output_o[21]
*402 output_o[220]
*403 output_o[221]
*404 output_o[222]
*405 output_o[223]
*406 output_o[224]
*407 output_o[225]
*408 output_o[226]
*409 output_o[227]
*410 output_o[228]
*411 output_o[229]
*412 output_o[22]
*413 output_o[230]
*414 output_o[231]
*415 output_o[232]
*416 output_o[233]
*417 output_o[234]
*418 output_o[235]
*419 output_o[236]
*420 output_o[237]
*421 output_o[238]
*422 output_o[239]
*423 output_o[23]
*424 output_o[240]
*425 output_o[241]
*426 output_o[242]
*427 output_o[243]
*428 output_o[244]
*429 output_o[245]
*430 output_o[246]
*431 output_o[247]
*432 output_o[248]
*433 output_o[249]
*434 output_o[24]
*435 output_o[250]
*436 output_o[251]
*437 output_o[252]
*438 output_o[253]
*439 output_o[254]
*440 output_o[255]
*441 output_o[25]
*442 output_o[26]
*443 output_o[27]
*444 output_o[28]
*445 output_o[29]
*446 output_o[2]
*447 output_o[30]
*448 output_o[31]
*449 output_o[32]
*450 output_o[33]
*451 output_o[34]
*452 output_o[35]
*453 output_o[36]
*454 output_o[37]
*455 output_o[38]
*456 output_o[39]
*457 output_o[3]
*458 output_o[40]
*459 output_o[41]
*460 output_o[42]
*461 output_o[43]
*462 output_o[44]
*463 output_o[45]
*464 output_o[46]
*465 output_o[47]
*466 output_o[48]
*467 output_o[49]
*468 output_o[4]
*469 output_o[50]
*470 output_o[51]
*471 output_o[52]
*472 output_o[53]
*473 output_o[54]
*474 output_o[55]
*475 output_o[56]
*476 output_o[57]
*477 output_o[58]
*478 output_o[59]
*479 output_o[5]
*480 output_o[60]
*481 output_o[61]
*482 output_o[62]
*483 output_o[63]
*484 output_o[64]
*485 output_o[65]
*486 output_o[66]
*487 output_o[67]
*488 output_o[68]
*489 output_o[69]
*490 output_o[6]
*491 output_o[70]
*492 output_o[71]
*493 output_o[72]
*494 output_o[73]
*495 output_o[74]
*496 output_o[75]
*497 output_o[76]
*498 output_o[77]
*499 output_o[78]
*500 output_o[79]
*501 output_o[7]
*502 output_o[80]
*503 output_o[81]
*504 output_o[82]
*505 output_o[83]
*506 output_o[84]
*507 output_o[85]
*508 output_o[86]
*509 output_o[87]
*510 output_o[88]
*511 output_o[89]
*512 output_o[8]
*513 output_o[90]
*514 output_o[91]
*515 output_o[92]
*516 output_o[93]
*517 output_o[94]
*518 output_o[95]
*519 output_o[96]
*520 output_o[97]
*521 output_o[98]
*522 output_o[99]
*523 output_o[9]
*524 _000_
*525 _001_
*526 _002_
*527 _003_
*528 _004_
*529 _005_
*530 _006_
*531 _007_
*532 _008_
*533 _009_
*534 _010_
*535 _011_
*536 _012_
*537 _013_
*538 _014_
*539 _015_
*540 _016_
*541 _017_
*542 _018_
*543 _019_
*544 _020_
*545 _021_
*546 _022_
*547 _023_
*548 _024_
*549 _025_
*550 _026_
*551 _027_
*552 _028_
*553 _029_
*554 _030_
*555 _031_
*556 _032_
*557 _033_
*558 _034_
*559 _035_
*560 _036_
*561 _037_
*562 _038_
*563 _039_
*564 _040_
*565 _041_
*566 _042_
*567 _043_
*568 _044_
*569 _045_
*570 _046_
*571 _047_
*572 _048_
*573 _049_
*574 _050_
*575 _051_
*576 _052_
*577 _053_
*578 _054_
*579 _055_
*580 _056_
*581 _057_
*582 _058_
*583 _059_
*584 _060_
*585 _061_
*586 _062_
*587 _063_
*588 _064_
*589 _065_
*590 _066_
*591 _067_
*592 _068_
*593 _069_
*594 _070_
*595 _071_
*596 _072_
*597 _073_
*598 _074_
*599 _075_
*600 _076_
*601 _077_
*602 _078_
*603 _079_
*604 _080_
*605 _081_
*606 _082_
*607 _083_
*608 _084_
*609 _085_
*610 _086_
*611 _087_
*612 _088_
*613 _089_
*614 _090_
*615 _091_
*616 _092_
*617 _093_
*618 _094_
*619 FILLER_0_0
*620 FILLER_0_1028
*621 FILLER_0_256
*622 FILLER_0_258
*623 FILLER_0_319
*624 FILLER_0_381
*625 FILLER_0_446
*626 FILLER_0_511
*627 FILLER_0_532
*628 FILLER_0_534
*629 FILLER_0_544
*630 FILLER_0_574
*631 FILLER_0_578
*632 FILLER_0_593
*633 FILLER_0_603
*634 FILLER_0_607
*635 FILLER_0_632
*636 FILLER_0_639
*637 FILLER_0_834
*638 FILLER_10_0
*639 FILLER_10_1001
*640 FILLER_10_1008
*641 FILLER_10_1015
*642 FILLER_10_1022
*643 FILLER_10_105
*644 FILLER_10_112
*645 FILLER_10_119
*646 FILLER_10_126
*647 FILLER_10_133
*648 FILLER_10_14
*649 FILLER_10_140
*650 FILLER_10_147
*651 FILLER_10_154
*652 FILLER_10_161
*653 FILLER_10_168
*654 FILLER_10_175
*655 FILLER_10_182
*656 FILLER_10_189
*657 FILLER_10_196
*658 FILLER_10_203
*659 FILLER_10_21
*660 FILLER_10_210
*661 FILLER_10_217
*662 FILLER_10_224
*663 FILLER_10_231
*664 FILLER_10_238
*665 FILLER_10_245
*666 FILLER_10_252
*667 FILLER_10_259
*668 FILLER_10_266
*669 FILLER_10_273
*670 FILLER_10_28
*671 FILLER_10_280
*672 FILLER_10_287
*673 FILLER_10_294
*674 FILLER_10_301
*675 FILLER_10_308
*676 FILLER_10_315
*677 FILLER_10_322
*678 FILLER_10_329
*679 FILLER_10_336
*680 FILLER_10_343
*681 FILLER_10_35
*682 FILLER_10_350
*683 FILLER_10_357
*684 FILLER_10_364
*685 FILLER_10_371
*686 FILLER_10_378
*687 FILLER_10_385
*688 FILLER_10_392
*689 FILLER_10_399
*690 FILLER_10_406
*691 FILLER_10_413
*692 FILLER_10_42
*693 FILLER_10_420
*694 FILLER_10_427
*695 FILLER_10_434
*696 FILLER_10_441
*697 FILLER_10_448
*698 FILLER_10_455
*699 FILLER_10_462
*700 FILLER_10_469
*701 FILLER_10_476
*702 FILLER_10_483
*703 FILLER_10_49
*704 FILLER_10_490
*705 FILLER_10_497
*706 FILLER_10_504
*707 FILLER_10_511
*708 FILLER_10_518
*709 FILLER_10_525
*710 FILLER_10_532
*711 FILLER_10_539
*712 FILLER_10_546
*713 FILLER_10_553
*714 FILLER_10_56
*715 FILLER_10_560
*716 FILLER_10_567
*717 FILLER_10_574
*718 FILLER_10_581
*719 FILLER_10_588
*720 FILLER_10_595
*721 FILLER_10_602
*722 FILLER_10_609
*723 FILLER_10_616
*724 FILLER_10_623
*725 FILLER_10_63
*726 FILLER_10_630
*727 FILLER_10_637
*728 FILLER_10_644
*729 FILLER_10_651
*730 FILLER_10_658
*731 FILLER_10_665
*732 FILLER_10_672
*733 FILLER_10_679
*734 FILLER_10_686
*735 FILLER_10_693
*736 FILLER_10_7
*737 FILLER_10_70
*738 FILLER_10_700
*739 FILLER_10_707
*740 FILLER_10_714
*741 FILLER_10_721
*742 FILLER_10_728
*743 FILLER_10_735
*744 FILLER_10_742
*745 FILLER_10_749
*746 FILLER_10_756
*747 FILLER_10_763
*748 FILLER_10_77
*749 FILLER_10_770
*750 FILLER_10_777
*751 FILLER_10_784
*752 FILLER_10_791
*753 FILLER_10_798
*754 FILLER_10_805
*755 FILLER_10_812
*756 FILLER_10_819
*757 FILLER_10_826
*758 FILLER_10_833
*759 FILLER_10_84
*760 FILLER_10_840
*761 FILLER_10_847
*762 FILLER_10_854
*763 FILLER_10_861
*764 FILLER_10_868
*765 FILLER_10_875
*766 FILLER_10_882
*767 FILLER_10_889
*768 FILLER_10_896
*769 FILLER_10_903
*770 FILLER_10_91
*771 FILLER_10_910
*772 FILLER_10_917
*773 FILLER_10_924
*774 FILLER_10_931
*775 FILLER_10_938
*776 FILLER_10_945
*777 FILLER_10_952
*778 FILLER_10_959
*779 FILLER_10_966
*780 FILLER_10_973
*781 FILLER_10_98
*782 FILLER_10_980
*783 FILLER_10_987
*784 FILLER_10_994
*785 FILLER_1_0
*786 FILLER_1_1003
*787 FILLER_1_1010
*788 FILLER_1_1012
*789 FILLER_1_1017
*790 FILLER_1_1024
*791 FILLER_1_1028
*792 FILLER_1_103
*793 FILLER_1_110
*794 FILLER_1_117
*795 FILLER_1_124
*796 FILLER_1_13
*797 FILLER_1_131
*798 FILLER_1_138
*799 FILLER_1_145
*800 FILLER_1_152
*801 FILLER_1_159
*802 FILLER_1_166
*803 FILLER_1_173
*804 FILLER_1_180
*805 FILLER_1_187
*806 FILLER_1_194
*807 FILLER_1_199
*808 FILLER_1_20
*809 FILLER_1_206
*810 FILLER_1_213
*811 FILLER_1_220
*812 FILLER_1_227
*813 FILLER_1_234
*814 FILLER_1_241
*815 FILLER_1_248
*816 FILLER_1_254
*817 FILLER_1_261
*818 FILLER_1_267
*819 FILLER_1_27
*820 FILLER_1_274
*821 FILLER_1_281
*822 FILLER_1_288
*823 FILLER_1_295
*824 FILLER_1_302
*825 FILLER_1_309
*826 FILLER_1_316
*827 FILLER_1_323
*828 FILLER_1_325
*829 FILLER_1_330
*830 FILLER_1_337
*831 FILLER_1_34
*832 FILLER_1_344
*833 FILLER_1_351
*834 FILLER_1_358
*835 FILLER_1_365
*836 FILLER_1_372
*837 FILLER_1_379
*838 FILLER_1_386
*839 FILLER_1_393
*840 FILLER_1_400
*841 FILLER_1_407
*842 FILLER_1_41
*843 FILLER_1_414
*844 FILLER_1_421
*845 FILLER_1_428
*846 FILLER_1_435
*847 FILLER_1_442
*848 FILLER_1_446
*849 FILLER_1_452
*850 FILLER_1_459
*851 FILLER_1_466
*852 FILLER_1_473
*853 FILLER_1_48
*854 FILLER_1_480
*855 FILLER_1_487
*856 FILLER_1_494
*857 FILLER_1_501
*858 FILLER_1_508
*859 FILLER_1_515
*860 FILLER_1_522
*861 FILLER_1_526
*862 FILLER_1_53
*863 FILLER_1_540
*864 FILLER_1_551
*865 FILLER_1_558
*866 FILLER_1_563
*867 FILLER_1_570
*868 FILLER_1_577
*869 FILLER_1_584
*870 FILLER_1_586
*871 FILLER_1_60
*872 FILLER_1_600
*873 FILLER_1_604
*874 FILLER_1_609
*875 FILLER_1_616
*876 FILLER_1_622
*877 FILLER_1_629
*878 FILLER_1_636
*879 FILLER_1_643
*880 FILLER_1_649
*881 FILLER_1_656
*882 FILLER_1_663
*883 FILLER_1_667
*884 FILLER_1_673
*885 FILLER_1_68
*886 FILLER_1_680
*887 FILLER_1_684
*888 FILLER_1_689
*889 FILLER_1_696
*890 FILLER_1_7
*891 FILLER_1_702
*892 FILLER_1_709
*893 FILLER_1_716
*894 FILLER_1_723
*895 FILLER_1_730
*896 FILLER_1_737
*897 FILLER_1_744
*898 FILLER_1_75
*899 FILLER_1_751
*900 FILLER_1_758
*901 FILLER_1_765
*902 FILLER_1_772
*903 FILLER_1_779
*904 FILLER_1_786
*905 FILLER_1_793
*906 FILLER_1_800
*907 FILLER_1_807
*908 FILLER_1_814
*909 FILLER_1_82
*910 FILLER_1_821
*911 FILLER_1_825
*912 FILLER_1_830
*913 FILLER_1_834
*914 FILLER_1_839
*915 FILLER_1_846
*916 FILLER_1_853
*917 FILLER_1_860
*918 FILLER_1_867
*919 FILLER_1_874
*920 FILLER_1_881
*921 FILLER_1_888
*922 FILLER_1_89
*923 FILLER_1_895
*924 FILLER_1_902
*925 FILLER_1_909
*926 FILLER_1_916
*927 FILLER_1_923
*928 FILLER_1_930
*929 FILLER_1_937
*930 FILLER_1_944
*931 FILLER_1_951
*932 FILLER_1_955
*933 FILLER_1_96
*934 FILLER_1_961
*935 FILLER_1_968
*936 FILLER_1_975
*937 FILLER_1_982
*938 FILLER_1_989
*939 FILLER_1_996
*940 FILLER_2_0
*941 FILLER_2_1017
*942 FILLER_2_102
*943 FILLER_2_1024
*944 FILLER_2_1028
*945 FILLER_2_109
*946 FILLER_2_116
*947 FILLER_2_123
*948 FILLER_2_128
*949 FILLER_2_135
*950 FILLER_2_139
*951 FILLER_2_14
*952 FILLER_2_144
*953 FILLER_2_151
*954 FILLER_2_158
*955 FILLER_2_165
*956 FILLER_2_172
*957 FILLER_2_179
*958 FILLER_2_186
*959 FILLER_2_193
*960 FILLER_2_197
*961 FILLER_2_202
*962 FILLER_2_208
*963 FILLER_2_215
*964 FILLER_2_219
*965 FILLER_2_225
*966 FILLER_2_23
*967 FILLER_2_232
*968 FILLER_2_236
*969 FILLER_2_241
*970 FILLER_2_248
*971 FILLER_2_255
*972 FILLER_2_262
*973 FILLER_2_266
*974 FILLER_2_272
*975 FILLER_2_279
*976 FILLER_2_283
*977 FILLER_2_288
*978 FILLER_2_295
*979 FILLER_2_299
*980 FILLER_2_305
*981 FILLER_2_312
*982 FILLER_2_317
*983 FILLER_2_321
*984 FILLER_2_327
*985 FILLER_2_334
*986 FILLER_2_341
*987 FILLER_2_348
*988 FILLER_2_355
*989 FILLER_2_36
*990 FILLER_2_362
*991 FILLER_2_369
*992 FILLER_2_376
*993 FILLER_2_383
*994 FILLER_2_389
*995 FILLER_2_399
*996 FILLER_2_406
*997 FILLER_2_414
*998 FILLER_2_421
*999 FILLER_2_425
*1000 FILLER_2_43
*1001 FILLER_2_435
*1002 FILLER_2_443
*1003 FILLER_2_450
*1004 FILLER_2_456
*1005 FILLER_2_464
*1006 FILLER_2_471
*1007 FILLER_2_475
*1008 FILLER_2_480
*1009 FILLER_2_487
*1010 FILLER_2_491
*1011 FILLER_2_50
*1012 FILLER_2_504
*1013 FILLER_2_509
*1014 FILLER_2_516
*1015 FILLER_2_523
*1016 FILLER_2_530
*1017 FILLER_2_537
*1018 FILLER_2_544
*1019 FILLER_2_551
*1020 FILLER_2_558
*1021 FILLER_2_562
*1022 FILLER_2_581
*1023 FILLER_2_588
*1024 FILLER_2_595
*1025 FILLER_2_602
*1026 FILLER_2_608
*1027 FILLER_2_61
*1028 FILLER_2_615
*1029 FILLER_2_622
*1030 FILLER_2_641
*1031 FILLER_2_652
*1032 FILLER_2_657
*1033 FILLER_2_664
*1034 FILLER_2_671
*1035 FILLER_2_678
*1036 FILLER_2_685
*1037 FILLER_2_692
*1038 FILLER_2_694
*1039 FILLER_2_699
*1040 FILLER_2_7
*1041 FILLER_2_70
*1042 FILLER_2_706
*1043 FILLER_2_713
*1044 FILLER_2_720
*1045 FILLER_2_727
*1046 FILLER_2_734
*1047 FILLER_2_741
*1048 FILLER_2_748
*1049 FILLER_2_752
*1050 FILLER_2_769
*1051 FILLER_2_771
*1052 FILLER_2_776
*1053 FILLER_2_780
*1054 FILLER_2_785
*1055 FILLER_2_792
*1056 FILLER_2_800
*1057 FILLER_2_807
*1058 FILLER_2_81
*1059 FILLER_2_811
*1060 FILLER_2_816
*1061 FILLER_2_823
*1062 FILLER_2_830
*1063 FILLER_2_837
*1064 FILLER_2_848
*1065 FILLER_2_855
*1066 FILLER_2_859
*1067 FILLER_2_864
*1068 FILLER_2_871
*1069 FILLER_2_875
*1070 FILLER_2_88
*1071 FILLER_2_896
*1072 FILLER_2_9
*1073 FILLER_2_903
*1074 FILLER_2_910
*1075 FILLER_2_917
*1076 FILLER_2_924
*1077 FILLER_2_931
*1078 FILLER_2_938
*1079 FILLER_2_945
*1080 FILLER_2_95
*1081 FILLER_2_952
*1082 FILLER_2_959
*1083 FILLER_2_965
*1084 FILLER_2_967
*1085 FILLER_2_972
*1086 FILLER_2_979
*1087 FILLER_2_983
*1088 FILLER_2_988
*1089 FILLER_2_995
*1090 FILLER_3_0
*1091 FILLER_3_1004
*1092 FILLER_3_1011
*1093 FILLER_3_1018
*1094 FILLER_3_1025
*1095 FILLER_3_11
*1096 FILLER_3_125
*1097 FILLER_3_141
*1098 FILLER_3_17
*1099 FILLER_3_195
*1100 FILLER_3_199
*1101 FILLER_3_205
*1102 FILLER_3_221
*1103 FILLER_3_223
*1104 FILLER_3_236
*1105 FILLER_3_238
*1106 FILLER_3_24
*1107 FILLER_3_251
*1108 FILLER_3_255
*1109 FILLER_3_269
*1110 FILLER_3_271
*1111 FILLER_3_280
*1112 FILLER_3_285
*1113 FILLER_3_301
*1114 FILLER_3_31
*1115 FILLER_3_314
*1116 FILLER_3_318
*1117 FILLER_3_35
*1118 FILLER_3_379
*1119 FILLER_3_386
*1120 FILLER_3_396
*1121 FILLER_3_410
*1122 FILLER_3_412
*1123 FILLER_3_417
*1124 FILLER_3_426
*1125 FILLER_3_443
*1126 FILLER_3_450
*1127 FILLER_3_454
*1128 FILLER_3_460
*1129 FILLER_3_476
*1130 FILLER_3_480
*1131 FILLER_3_49
*1132 FILLER_3_493
*1133 FILLER_3_500
*1134 FILLER_3_502
*1135 FILLER_3_507
*1136 FILLER_3_514
*1137 FILLER_3_528
*1138 FILLER_3_535
*1139 FILLER_3_539
*1140 FILLER_3_545
*1141 FILLER_3_547
*1142 FILLER_3_552
*1143 FILLER_3_559
*1144 FILLER_3_563
*1145 FILLER_3_57
*1146 FILLER_3_573
*1147 FILLER_3_580
*1148 FILLER_3_590
*1149 FILLER_3_597
*1150 FILLER_3_613
*1151 FILLER_3_620
*1152 FILLER_3_627
*1153 FILLER_3_634
*1154 FILLER_3_639
*1155 FILLER_3_64
*1156 FILLER_3_646
*1157 FILLER_3_650
*1158 FILLER_3_655
*1159 FILLER_3_657
*1160 FILLER_3_670
*1161 FILLER_3_672
*1162 FILLER_3_685
*1163 FILLER_3_697
*1164 FILLER_3_7
*1165 FILLER_3_704
*1166 FILLER_3_756
*1167 FILLER_3_763
*1168 FILLER_3_77
*1169 FILLER_3_770
*1170 FILLER_3_782
*1171 FILLER_3_784
*1172 FILLER_3_797
*1173 FILLER_3_799
*1174 FILLER_3_804
*1175 FILLER_3_813
*1176 FILLER_3_815
*1177 FILLER_3_832
*1178 FILLER_3_836
*1179 FILLER_3_846
*1180 FILLER_3_848
*1181 FILLER_3_861
*1182 FILLER_3_863
*1183 FILLER_3_876
*1184 FILLER_3_883
*1185 FILLER_3_890
*1186 FILLER_3_897
*1187 FILLER_3_962
*1188 FILLER_3_964
*1189 FILLER_3_969
*1190 FILLER_3_985
*1191 FILLER_3_987
*1192 FILLER_3_992
*1193 FILLER_3_997
*1194 FILLER_4_0
*1195 FILLER_4_1005
*1196 FILLER_4_1012
*1197 FILLER_4_1019
*1198 FILLER_4_1026
*1199 FILLER_4_1028
*1200 FILLER_4_103
*1201 FILLER_4_110
*1202 FILLER_4_117
*1203 FILLER_4_124
*1204 FILLER_4_131
*1205 FILLER_4_138
*1206 FILLER_4_14
*1207 FILLER_4_145
*1208 FILLER_4_152
*1209 FILLER_4_159
*1210 FILLER_4_166
*1211 FILLER_4_173
*1212 FILLER_4_180
*1213 FILLER_4_201
*1214 FILLER_4_208
*1215 FILLER_4_21
*1216 FILLER_4_215
*1217 FILLER_4_222
*1218 FILLER_4_229
*1219 FILLER_4_236
*1220 FILLER_4_243
*1221 FILLER_4_257
*1222 FILLER_4_261
*1223 FILLER_4_267
*1224 FILLER_4_274
*1225 FILLER_4_28
*1226 FILLER_4_281
*1227 FILLER_4_287
*1228 FILLER_4_294
*1229 FILLER_4_301
*1230 FILLER_4_308
*1231 FILLER_4_315
*1232 FILLER_4_322
*1233 FILLER_4_338
*1234 FILLER_4_345
*1235 FILLER_4_35
*1236 FILLER_4_352
*1237 FILLER_4_359
*1238 FILLER_4_366
*1239 FILLER_4_373
*1240 FILLER_4_377
*1241 FILLER_4_398
*1242 FILLER_4_405
*1243 FILLER_4_412
*1244 FILLER_4_419
*1245 FILLER_4_42
*1246 FILLER_4_445
*1247 FILLER_4_452
*1248 FILLER_4_454
*1249 FILLER_4_465
*1250 FILLER_4_472
*1251 FILLER_4_478
*1252 FILLER_4_485
*1253 FILLER_4_49
*1254 FILLER_4_492
*1255 FILLER_4_494
*1256 FILLER_4_505
*1257 FILLER_4_512
*1258 FILLER_4_524
*1259 FILLER_4_526
*1260 FILLER_4_532
*1261 FILLER_4_536
*1262 FILLER_4_545
*1263 FILLER_4_556
*1264 FILLER_4_56
*1265 FILLER_4_563
*1266 FILLER_4_572
*1267 FILLER_4_579
*1268 FILLER_4_586
*1269 FILLER_4_593
*1270 FILLER_4_597
*1271 FILLER_4_616
*1272 FILLER_4_623
*1273 FILLER_4_63
*1274 FILLER_4_630
*1275 FILLER_4_646
*1276 FILLER_4_65
*1277 FILLER_4_653
*1278 FILLER_4_660
*1279 FILLER_4_667
*1280 FILLER_4_674
*1281 FILLER_4_681
*1282 FILLER_4_683
*1283 FILLER_4_693
*1284 FILLER_4_7
*1285 FILLER_4_700
*1286 FILLER_4_704
*1287 FILLER_4_715
*1288 FILLER_4_722
*1289 FILLER_4_729
*1290 FILLER_4_736
*1291 FILLER_4_743
*1292 FILLER_4_75
*1293 FILLER_4_750
*1294 FILLER_4_757
*1295 FILLER_4_764
*1296 FILLER_4_777
*1297 FILLER_4_784
*1298 FILLER_4_791
*1299 FILLER_4_798
*1300 FILLER_4_805
*1301 FILLER_4_812
*1302 FILLER_4_819
*1303 FILLER_4_82
*1304 FILLER_4_826
*1305 FILLER_4_839
*1306 FILLER_4_846
*1307 FILLER_4_853
*1308 FILLER_4_860
*1309 FILLER_4_867
*1310 FILLER_4_874
*1311 FILLER_4_881
*1312 FILLER_4_888
*1313 FILLER_4_89
*1314 FILLER_4_904
*1315 FILLER_4_911
*1316 FILLER_4_918
*1317 FILLER_4_925
*1318 FILLER_4_932
*1319 FILLER_4_939
*1320 FILLER_4_946
*1321 FILLER_4_956
*1322 FILLER_4_96
*1323 FILLER_4_963
*1324 FILLER_4_970
*1325 FILLER_4_977
*1326 FILLER_4_984
*1327 FILLER_4_991
*1328 FILLER_4_998
*1329 FILLER_5_0
*1330 FILLER_5_1000
*1331 FILLER_5_1007
*1332 FILLER_5_1014
*1333 FILLER_5_1021
*1334 FILLER_5_1028
*1335 FILLER_5_105
*1336 FILLER_5_112
*1337 FILLER_5_119
*1338 FILLER_5_126
*1339 FILLER_5_133
*1340 FILLER_5_14
*1341 FILLER_5_140
*1342 FILLER_5_147
*1343 FILLER_5_154
*1344 FILLER_5_161
*1345 FILLER_5_168
*1346 FILLER_5_175
*1347 FILLER_5_182
*1348 FILLER_5_189
*1349 FILLER_5_196
*1350 FILLER_5_203
*1351 FILLER_5_21
*1352 FILLER_5_210
*1353 FILLER_5_217
*1354 FILLER_5_224
*1355 FILLER_5_229
*1356 FILLER_5_236
*1357 FILLER_5_243
*1358 FILLER_5_250
*1359 FILLER_5_257
*1360 FILLER_5_264
*1361 FILLER_5_271
*1362 FILLER_5_278
*1363 FILLER_5_28
*1364 FILLER_5_285
*1365 FILLER_5_292
*1366 FILLER_5_299
*1367 FILLER_5_306
*1368 FILLER_5_313
*1369 FILLER_5_320
*1370 FILLER_5_327
*1371 FILLER_5_334
*1372 FILLER_5_341
*1373 FILLER_5_348
*1374 FILLER_5_35
*1375 FILLER_5_355
*1376 FILLER_5_362
*1377 FILLER_5_369
*1378 FILLER_5_376
*1379 FILLER_5_383
*1380 FILLER_5_390
*1381 FILLER_5_397
*1382 FILLER_5_404
*1383 FILLER_5_411
*1384 FILLER_5_418
*1385 FILLER_5_42
*1386 FILLER_5_436
*1387 FILLER_5_443
*1388 FILLER_5_450
*1389 FILLER_5_457
*1390 FILLER_5_464
*1391 FILLER_5_468
*1392 FILLER_5_483
*1393 FILLER_5_49
*1394 FILLER_5_490
*1395 FILLER_5_506
*1396 FILLER_5_512
*1397 FILLER_5_525
*1398 FILLER_5_532
*1399 FILLER_5_536
*1400 FILLER_5_546
*1401 FILLER_5_550
*1402 FILLER_5_555
*1403 FILLER_5_56
*1404 FILLER_5_562
*1405 FILLER_5_572
*1406 FILLER_5_585
*1407 FILLER_5_592
*1408 FILLER_5_594
*1409 FILLER_5_609
*1410 FILLER_5_616
*1411 FILLER_5_620
*1412 FILLER_5_63
*1413 FILLER_5_648
*1414 FILLER_5_655
*1415 FILLER_5_662
*1416 FILLER_5_669
*1417 FILLER_5_676
*1418 FILLER_5_683
*1419 FILLER_5_695
*1420 FILLER_5_7
*1421 FILLER_5_70
*1422 FILLER_5_702
*1423 FILLER_5_709
*1424 FILLER_5_716
*1425 FILLER_5_723
*1426 FILLER_5_730
*1427 FILLER_5_737
*1428 FILLER_5_744
*1429 FILLER_5_751
*1430 FILLER_5_755
*1431 FILLER_5_77
*1432 FILLER_5_771
*1433 FILLER_5_778
*1434 FILLER_5_785
*1435 FILLER_5_792
*1436 FILLER_5_799
*1437 FILLER_5_806
*1438 FILLER_5_813
*1439 FILLER_5_820
*1440 FILLER_5_827
*1441 FILLER_5_834
*1442 FILLER_5_84
*1443 FILLER_5_841
*1444 FILLER_5_848
*1445 FILLER_5_853
*1446 FILLER_5_860
*1447 FILLER_5_867
*1448 FILLER_5_874
*1449 FILLER_5_881
*1450 FILLER_5_888
*1451 FILLER_5_895
*1452 FILLER_5_902
*1453 FILLER_5_909
*1454 FILLER_5_91
*1455 FILLER_5_916
*1456 FILLER_5_923
*1457 FILLER_5_930
*1458 FILLER_5_937
*1459 FILLER_5_944
*1460 FILLER_5_951
*1461 FILLER_5_958
*1462 FILLER_5_965
*1463 FILLER_5_972
*1464 FILLER_5_979
*1465 FILLER_5_98
*1466 FILLER_5_986
*1467 FILLER_5_993
*1468 FILLER_6_0
*1469 FILLER_6_1006
*1470 FILLER_6_1013
*1471 FILLER_6_1020
*1472 FILLER_6_1027
*1473 FILLER_6_105
*1474 FILLER_6_112
*1475 FILLER_6_119
*1476 FILLER_6_126
*1477 FILLER_6_133
*1478 FILLER_6_14
*1479 FILLER_6_140
*1480 FILLER_6_147
*1481 FILLER_6_154
*1482 FILLER_6_161
*1483 FILLER_6_168
*1484 FILLER_6_175
*1485 FILLER_6_182
*1486 FILLER_6_189
*1487 FILLER_6_196
*1488 FILLER_6_203
*1489 FILLER_6_21
*1490 FILLER_6_210
*1491 FILLER_6_217
*1492 FILLER_6_224
*1493 FILLER_6_231
*1494 FILLER_6_238
*1495 FILLER_6_245
*1496 FILLER_6_252
*1497 FILLER_6_259
*1498 FILLER_6_266
*1499 FILLER_6_273
*1500 FILLER_6_28
*1501 FILLER_6_280
*1502 FILLER_6_287
*1503 FILLER_6_294
*1504 FILLER_6_301
*1505 FILLER_6_308
*1506 FILLER_6_315
*1507 FILLER_6_322
*1508 FILLER_6_329
*1509 FILLER_6_336
*1510 FILLER_6_343
*1511 FILLER_6_35
*1512 FILLER_6_350
*1513 FILLER_6_357
*1514 FILLER_6_364
*1515 FILLER_6_371
*1516 FILLER_6_378
*1517 FILLER_6_385
*1518 FILLER_6_392
*1519 FILLER_6_399
*1520 FILLER_6_406
*1521 FILLER_6_413
*1522 FILLER_6_42
*1523 FILLER_6_420
*1524 FILLER_6_433
*1525 FILLER_6_440
*1526 FILLER_6_447
*1527 FILLER_6_451
*1528 FILLER_6_466
*1529 FILLER_6_478
*1530 FILLER_6_485
*1531 FILLER_6_49
*1532 FILLER_6_492
*1533 FILLER_6_499
*1534 FILLER_6_506
*1535 FILLER_6_513
*1536 FILLER_6_517
*1537 FILLER_6_523
*1538 FILLER_6_530
*1539 FILLER_6_545
*1540 FILLER_6_549
*1541 FILLER_6_557
*1542 FILLER_6_56
*1543 FILLER_6_563
*1544 FILLER_6_567
*1545 FILLER_6_576
*1546 FILLER_6_587
*1547 FILLER_6_594
*1548 FILLER_6_598
*1549 FILLER_6_603
*1550 FILLER_6_610
*1551 FILLER_6_617
*1552 FILLER_6_624
*1553 FILLER_6_63
*1554 FILLER_6_642
*1555 FILLER_6_649
*1556 FILLER_6_656
*1557 FILLER_6_663
*1558 FILLER_6_670
*1559 FILLER_6_677
*1560 FILLER_6_684
*1561 FILLER_6_691
*1562 FILLER_6_698
*1563 FILLER_6_7
*1564 FILLER_6_70
*1565 FILLER_6_705
*1566 FILLER_6_712
*1567 FILLER_6_719
*1568 FILLER_6_726
*1569 FILLER_6_733
*1570 FILLER_6_740
*1571 FILLER_6_747
*1572 FILLER_6_754
*1573 FILLER_6_761
*1574 FILLER_6_768
*1575 FILLER_6_77
*1576 FILLER_6_775
*1577 FILLER_6_782
*1578 FILLER_6_789
*1579 FILLER_6_796
*1580 FILLER_6_803
*1581 FILLER_6_810
*1582 FILLER_6_817
*1583 FILLER_6_824
*1584 FILLER_6_831
*1585 FILLER_6_838
*1586 FILLER_6_84
*1587 FILLER_6_845
*1588 FILLER_6_852
*1589 FILLER_6_859
*1590 FILLER_6_866
*1591 FILLER_6_873
*1592 FILLER_6_880
*1593 FILLER_6_887
*1594 FILLER_6_894
*1595 FILLER_6_901
*1596 FILLER_6_908
*1597 FILLER_6_91
*1598 FILLER_6_915
*1599 FILLER_6_922
*1600 FILLER_6_929
*1601 FILLER_6_936
*1602 FILLER_6_943
*1603 FILLER_6_950
*1604 FILLER_6_957
*1605 FILLER_6_964
*1606 FILLER_6_971
*1607 FILLER_6_978
*1608 FILLER_6_98
*1609 FILLER_6_985
*1610 FILLER_6_992
*1611 FILLER_6_999
*1612 FILLER_7_0
*1613 FILLER_7_1000
*1614 FILLER_7_1007
*1615 FILLER_7_1014
*1616 FILLER_7_1021
*1617 FILLER_7_1028
*1618 FILLER_7_105
*1619 FILLER_7_112
*1620 FILLER_7_119
*1621 FILLER_7_126
*1622 FILLER_7_133
*1623 FILLER_7_14
*1624 FILLER_7_140